[/usr/local/prm/logs/kill.log]
datetime_format = %b %d %H:%M:%S
file = /usr/local/prm/logs/kill.log
buffer_duration = 5000
log_stream_name = {hostname}
initial_position = start_of_file
log_group_name = /usr/local/prm/logs/kill.log
